**** added line below using 'hspc_addline' function ****
.ac dec 201 1e3 500e3
