***** Spice Netlist for Cell 'Lab10_prelab2_sue' *****

************** Module Lab10_prelab2_sue **************
d0 n0 n1 1n4004rl 
xi0 n0 vin Multivibrator_sue
c1 vin n1 1nf ic=0 
v0 n0 gnd dc='12' ac='1' 
c0 n0 n2 1nf ic=0 
d1 n1 n2 1n4004rl 
c2 n1 n3 1nf ic=0 
d2 n2 n3 1n4004rl 
d3 n3 n4 1n4004rl 
d4 n4 n5 1n4004rl 
c3 n2 n4 1nf ic=0 
c4 n3 n5 1nf ic=0 
c5 n4 vout 1nf ic=0 
d6 n5 vout 1n4004rl 

************** Module Multivibrator_sue **************
.subckt Multivibrator_sue dc_in vout
r0 n0 dc_in 1k noisy=0 
r1 vout dc_in 1k noisy=0 
r2 vc2 dc_in 60k noisy=0 
r3 gnd vc2 30k noisy=0 
r4 vc1 dc_in 60k noisy=0 
r5 gnd vc1 30k noisy=0 
x0 vout vc2 gnd 2n7000_mod 
x1 n0 vc1 gnd 2n7000_mod 
c0 n0 vc2 1.56nf ic=0 
c1 vc1 vout 0.51nf ic=0 
.ends Multivibrator_sue


.end

